%nprocshared=2
%mem=512Mb 
#n b3lyp/6-311G(d,p) SP Pop=HPA

chembl344174sp 

0 1
N          3.22224        2.54684        1.62769
C          2.84302        2.33064        0.56598
C          2.36741        2.03207       -0.79877
N          1.16370        1.23453       -0.80485
C         -0.04296        1.82018       -0.55219
O         -0.18330        3.01946       -0.46885
C         -1.19885        0.82551       -0.34500
C         -2.54352        1.55038       -0.38933
C         -3.70197        0.59099       -0.29309
C         -4.37974        0.39755        0.90870
C         -5.42705       -0.51331        0.99691
C         -5.80965       -1.24524       -0.12083
C         -5.14113       -1.05958       -1.32675
C         -4.09632       -0.14782       -1.40955
N         -1.02765        0.15081        0.93624
C         -0.21953       -0.91732        1.16921
O          0.09269       -1.32471        2.25751
O          0.18808       -1.47752       -0.00242
C          1.20550       -2.49242        0.09875
C          2.55762       -1.85990       -0.10989
C          3.17578       -1.16523        0.93318
C          4.39456       -0.52877        0.72405
C          5.00368       -0.57991       -0.52703
C          4.38887       -1.26218       -1.57275
C          3.16753       -1.89636       -1.36348
H          3.15682        1.49540       -1.32723
H          2.17040        2.97863       -1.30431
H          1.24777        0.22809       -0.76842
H         -1.16380        0.06042       -1.12263
H         -2.57241        2.28785        0.41723
H         -2.58834        2.11765       -1.32152
H         -4.09117        0.97250        1.78283
H         -5.94410       -0.64974        1.93922
H         -6.62641       -1.95374       -0.05432
H         -5.43760       -1.62188       -2.20445
H         -3.58402        0.00063       -2.35555
H         -1.27961        0.65717        1.77327
H          0.97926       -3.20813       -0.69019
H          1.12776       -2.97214        1.07336
H          2.69268       -1.12144        1.90389
H          4.86022        0.01722        1.53521
H          5.95712       -0.08949       -0.68495
H          4.86123       -1.30671       -2.54697
H          2.68702       -2.43093       -2.17663

