%NProcShared=8
%Chk=opt1.chk
# AM1 Opt

 69c2a90a

0 1
C           2.93194         0.34100         1.38486
S           2.58012        -0.11401        -0.29231
O           3.42598        -1.22111        -0.64108
O           1.15190        -0.19777        -0.42132
C           3.10208         1.29013        -1.23651
C           4.35657         1.30180        -1.84855
C           4.74021         2.37785        -2.64418
C           2.25625         2.39079        -1.39598
C           2.65398         3.48294        -2.16663
C           3.89462         3.47537        -2.80432
C           4.29245         4.57132        -3.72889
C           4.53686         4.34926        -5.20166
C           4.75694         5.73741        -3.28266
C           5.42787         6.55770        -4.35929
C           5.33060         5.61113        -5.56601
C           6.52110         5.48299        -6.50296
C           5.27939         6.16723        -6.98018
C           4.89143         6.00155        -1.82417
C           6.14879         5.91312        -1.22136
C           6.29527         6.18148         0.13886
C           5.18976         6.57206         0.88949
F           5.33417         6.84931         2.19700
C           3.93730         6.68474         0.29010
C           3.78596         6.38808        -1.06426
H           2.63418        -0.48473         2.03655
H           2.36365         1.24112         1.62982
H           4.00452         0.52939         1.47847
H           5.03608         0.46228        -1.72588
H           5.71224         2.36443        -3.13150
H           1.27130         2.39229        -0.93596
H           1.97136         4.31636        -2.31182
H           3.59290         4.29964        -5.74876
H           5.11274         3.43882        -5.38585
H           6.46552         6.78751        -4.10682
H           4.88253         7.48753        -4.53773
H           6.73132         4.47206        -6.84053
H           7.38527         6.08273        -6.23187
H           4.61096         5.64047        -7.65485
H           5.26403         7.25183        -7.04358
H           7.01238         5.61324        -1.80634
H           7.27161         6.09067         0.60859
H           3.08133         7.01108         0.87523
H           2.81180         6.49420        -1.53319


--Link1--
%NProcShared=8
%Oldchk=opt1.chk
%Chk=opt2.chk
# m062x/6-311G(d,p) Opt Pop=NBO geom=check scf=maxcycle=1000 maxdisk=100Gb

 69c2a90a

0 1

--Link1--
%NProcShared=8
%Oldchk=opt2.chk
%Chk=fk+.chk
# m062x/6-311G(d,p) SP Pop=NBO geom=check scf=maxcycle=1000 maxdisk=100Gb

 69c2a90a

1 2

--Link1--
%NProcShared=8
%Oldchk=opt2.chk%Chk=fk-.chk
# m062x/6-311G(d,p) SP Pop=NBO geom=check scf=maxcycle=1000 maxdisk=100Gb

 69c2a90a

-1 2

