%NProcShared=2
%Chk=opt1.chk
# freq=noraman m062x/6-31+G(d,p)

 c8bbbb7c

0 1
 C           1.05258        -0.02333        -0.08180
 C           2.57258        -0.02333        -0.08180
 N           3.83354        -0.02333        -0.08180
 H           0.67737         0.94788        -0.41074
 H           0.67737        -0.22407         0.92376
 H           0.67737        -0.79380        -0.75843

