%NProcShared=8
# freq=noraman
 
 nitrila RS 

0 1
 C    -2.521668    -0.218795     0.106676
 S    -0.768445     0.227716    -0.101550
 C     2.219671     0.431571     0.070503
 N     2.507143    -0.680613    -0.024859
 H    -3.083440     0.715220     0.073319
 H     1.949633     1.464045    -0.023974
 H    -2.862461    -0.861482    -0.705095
 H    -2.695512    -0.699291     1.069484
 H    -0.260750    -1.011738    -0.041496
